GRID,1,,   0.025,       0,       0,
GRID,2,,  0.0231, 0.00957,       0,
GRID,3,,  0.0177,  0.0177,       0,
GRID,4,, 0.00957,  0.0231,       0,
GRID,5,,       0,   0.025,       0,
GRID,6,,-0.00957,  0.0231,       0,
GRID,7,, -0.0177,  0.0177,       0,
GRID,8,, -0.0231, 0.00957,       0,
GRID,9,,  -0.025,       0,       0,
GRID,10,, -0.0231,-0.00957,       0,
GRID,11,, -0.0177, -0.0177,       0,
GRID,12,,-0.00957, -0.0231,       0,
GRID,13,,       0,  -0.025,       0,
GRID,14,, 0.00957, -0.0231,       0,
GRID,15,,  0.0177, -0.0177,       0,
GRID,16,,  0.0231,-0.00957,       0,
GRID,17,,   0.025,       0,  0.0312,
GRID,18,,  0.0231, 0.00957,  0.0312,
GRID,19,,  0.0177,  0.0177,  0.0312,
GRID,20,, 0.00957,  0.0231,  0.0312,
$ ... 255 like lines cut
CQUAD4,1,1,1,2,18,17,
CQUAD4,2,1,2,3,19,18,
CQUAD4,3,1,3,4,20,19,
CQUAD4,4,1,4,5,21,20,
CQUAD4,5,1,5,6,22,21,
CQUAD4,6,1,6,7,23,22,
CQUAD4,7,1,7,8,24,23,
CQUAD4,8,1,8,9,25,24,
CQUAD4,9,1,9,10,26,25,
CQUAD4,10,1,10,11,27,26,
CQUAD4,11,1,11,12,28,27,
CQUAD4,12,1,12,13,29,28,
CQUAD4,13,1,13,14,30,29,
CQUAD4,14,1,14,15,31,30,
CQUAD4,15,1,15,16,32,31,
CQUAD4,16,1,16,1,17,32,
CQUAD4,17,1,17,18,34,33,
CQUAD4,18,1,18,19,35,34,
CQUAD4,19,1,19,20,36,35,
CQUAD4,20,1,20,21,37,36,
$ ... 236 like lines cut

PSHELL,1,1,0.001
MAT1,1, 2.1E+11,8.11E+10,0.295,7850
RBE2,1001,273,123456,1,2,3,4,
  ,5,6,7,8,9,10,11,12,
  ,13,14,15,16
RBE2,1002,274,123456,129,130,131,132,
  ,133,134,135,136,137,138,139,140,
  ,141,142,143,144
RBE2,1003,275,123456,257,258,259,260,
  ,261,262,263,264,265,266,267,268,
  ,269,270,271,272
