$*$$$$$$$$$$$$$$$$$$$$$$$$$$$$$$$$$$$$$$$$$$$$$$$$$$$$$$$$$$$
$*
$*                  I-DEAS 10 NASTRAN TRANSLATOR
$*                    FOR MSC/NASTRAN VERSION 2001
$*
$*           MODEL FILE: G:\SLA\Pre\sla_i01.mf1
$*           INPUT FILE: e:\ShortArm.bdf
$*             EXPORTED: AT 14:27:39 ON 08-Nov-04
$*                 PART: upper_control_arm
$*                  FEM: Fem1
$*
$*                UNITS: SI-Meter (newton)
$*                      ... LENGTH : meter
$*                      ... TIME   : sec
$*                      ... MASS   : kilogram (kg)
$*                      ... FORCE  : newton(N)
$*                      ... TEMPERATURE : deg Celsius
$*
$*     NASTRAN BASIC COORDINATE SYSTEM: WORKPLANE
$*
$*     SUBSET EXPORT: OFF
$*
$*     REAL DATA FILTER: OFF
$*
$*     MATERIAL ORIENTATION VECTOR EXPORT: OFF
$*
$*     ROUND-TRIPPING: OFF
$*
$*$$$$$$$$$$$$$$$$$$$$$$$$$$$$$$$$$$$$$$$$$$$$$$$$$$$$$$$$$$$
$*
$*$$$$$$$$$$$$$$$$$$$$$$$$$$$$$$$$$$$$$$
$*
$*  BULK DATA
$*
$*$$$$$$$$$$$$$$$$$$$$$$$$$$$$$$$$$$$$$$
$*
BEGIN BULK
$*
$*
$*
$*  COORDINATE SYSTEM CARDS
$*
$*
$* Coordinate System 3 Relates PART to WORKPLANE
$*
CORD2R*                3               0     0.000578838    -0.145000000+
*            0.301282798     0.058639855    -0.145000000     0.630563191+
*            0.329859231    -0.145000000     0.243221780                +
*
$*
$*  GRID CARDS
$*
GRID*                  1               3     0.073555603     0.068619977+
*            0.000408120               3
GRID*                  2               3     0.073964979     0.107963783+
*           -0.000703467               3
GRID*                  3               3    -0.065000000     0.132500000+
*        2.688821388E-17               3
GRID*                  4               3     0.074536450     0.101258721+
*           -0.000527900               3
GRID*                  5               3    -0.065000000     0.125000000+
*            0.005000000               3
GRID*                  6               3    -0.007387662     0.003240774+
*           -0.002464292               3
GRID*                  7               3    -0.085000000     0.125000000+
*            0.005000000               3
GRID*                  8               3    -0.029213751     0.006760408+
*            0.000143154               3
GRID*                  9               3    -0.085000000     0.132500000+
*        2.688821388E-17               3
GRID*                 10               3    -0.011070319     0.003268851+
*           -0.002749762               3
GRID*                 11               3    -0.012395224     0.007499268+
*                    0.0               3
GRID*                 12               3     0.065664938     0.053666311+
*            0.000548029               3
GRID*                 13               3    -0.070093695     0.085240383+
*                    0.0               3
GRID*                 14               3    -0.046825161     0.043011443+
*           -0.001696762               3
GRID*                 15               3    -0.070327665     0.100005710+
*                    0.0               3
GRID*                 16               3    -0.025775246     0.009090440+
*            0.002105984               3
GRID*                 17               3    -0.070438684     0.117500000+
*                    0.0               3
GRID*                 18               3    -0.072219716     0.080656327+
*       -7.251063976E-05               3
GRID*                 19               3     0.065000000     0.132500000+
*        2.688821388E-17               3
GRID*                 20               3    -0.031618321     0.023237058+
*            0.002441821               3
$ ... 4280 like lines cut
$*
$*  ELEMENT CARDS
$*
CTETRA*                1               1            1978             555+
*                   1985             554
CTETRA*                2               1            1309            1308+
*                    729            1313
CTETRA*                3               1            2067             874+
*                    875             597
CTETRA*                4               1              89            1296+
*                   1297             700
CTETRA*                5               1            2132            1200+
*                   1192            1199
CTETRA*                6               1             310            1452+
*                   1456            1460
CTETRA*                7               1              60            1393+
*                   1394            1550
CTETRA*                8               1             744            1266+
*                    750            1264
CTETRA*                9               1             620            1272+
*                    235             709
CTETRA*               10               1             729             728+
*                   1308             734
CTETRA*               11               1             328            2073+
*                   1789            1780
CTETRA*               12               1              90             805+
*                    752             795
CTETRA*               13               1            1362            1916+
*                   1927            1364
CTETRA*               14               1             700            1287+
*                    735            1295
CTETRA*               15               1             702            1299+
*                   1300            1294
CTETRA*               16               1              76             681+
*                    528             682
CTETRA*               17               1            2114            1174+
*                    336             148
CTETRA*               18               1            1468            1387+
*                   1473            2123
CTETRA*               19               1             222            1812+
*                    178            1810
CTETRA*               20               1              86            1964+
*                    543            1956
$ ... 13446 like lines cut
RBE2*               6744            2160          123456             451+
*                    453              37             439             441+
*                    443             445             447             449+
*                   1950            1949            1948            1954+
*                   1955             686            1953            1952+
*                   1951            1964            1960            1962+
*                    685            1946            1947            1969+
*                   1956              35             423             425+
*                    427             429             431             433+
*                    435             437             681             682+
*                    683             684            1957            1958+
*                   1959            1961            1963            1965+
*                   1966            1967            1968            1970+
*                   1971            1972            1973            1974+
*                   1975            1976            1977            1978+
*                   1979            1980            1981            1982+
*                   1983            1984            1985            1986+
*                   1987            1988            1989            1990+
*                   1991            1992                                +
*
RBE2*               6745            2158          123456               7+
*                    111             113             115             117+
*                    119             121             123             127+
*                    125             107             109               5+
*                     93              95              97             103+
*                    101              99             105
RBE2*               6746            2159          123456             275+
*                    273              21             295             297+
*                    299              23             291             293+
*                    279             277             305             307+
*                    283             281             285             301+
*                    289             287
$*
$*  MATERIAL CARDS
$*
$*
$*  I-DEAS Material: 1  name: GENERIC_ISOTROPIC_STEEL
MAT1*                  1 2.068000000E+11 8.015503876E+10     0.290000000+
*         7820.000000000 1.170000000E-05    21.850000000             0.0+
*        1.500000000E+08 1.500000000E+08 6.800000000E+07                +
*
$*
$*  PROPERTY CARDS
$*
$*
$*  I-DEAS property: 1  name: SOLID1
PSOLID*                1               1                                +
*
$*
ENDDATA
